Version 4
SHEET 1 920 768
WIRE 48 -48 -48 -48
WIRE 48 -16 48 -48
WIRE 48 112 48 64
WIRE -48 176 -48 -48
WIRE 48 176 -48 176
WIRE 160 176 48 176
WIRE 352 192 272 192
WIRE 432 192 352 192
WIRE 496 192 432 192
WIRE 672 192 560 192
WIRE 864 192 752 192
WIRE 160 208 96 208
WIRE 352 304 352 192
WIRE 352 304 80 304
WIRE 96 320 96 208
WIRE 352 320 96 320
WIRE 80 448 80 304
WIRE 160 448 80 448
WIRE 352 464 352 320
WIRE 352 464 272 464
WIRE 416 464 352 464
WIRE 160 480 48 480
WIRE 864 480 864 192
WIRE 48 624 48 480
WIRE 48 752 48 704
FLAG 48 112 0
FLAG 48 752 0
FLAG 864 480 0
FLAG 416 464 QinV
FLAG 48 176 SinV
FLAG 48 480 RinV
FLAG 432 192 Q
SYMBOL Dig_Add/74HC/74hc00 208 128 R0
SYMATTR InstName U1
SYMBOL Dig_Add/74HC/74hc00 208 400 R0
SYMATTR InstName U2
SYMBOL res 656 208 R270
WINDOW 0 32 56 VTop 2
WINDOW 3 0 56 VBottom 2
SYMATTR InstName R1
SYMATTR Value 300
SYMBOL voltage 48 -32 R0
SYMATTR InstName V2
SYMATTR Value PWL(0 5 15m 5 15.01m 0 20m 0 20.01m 5)
SYMBOL voltage 48 608 R0
SYMATTR InstName V1
SYMATTR Value PWL(0 5 5m 5 5.01m 0 10m 0 10.01m 5 30m 5 30.01m 0 35m 0 35.01m 5)
SYMBOL LED 496 208 R270
WINDOW 0 72 32 VTop 2
WINDOW 3 0 32 VBottom 2
SYMATTR InstName D1
TEXT 696 -56 Left 2 !.tran 50m
